OPT_V10/Two_days_MYC3/powerflow_results_t7.txt
Pandapower Network Debug Info
==================================================

BUS:
       vm_pu  va_degree      p_mw    q_mvar
0   0.992664   0.122118  0.001168  0.000939
1   0.988157   0.201501  0.001766  0.001890
2   0.984235   0.296573  0.001788  0.003178
3   0.988665   0.206764  0.002629  0.004221
4   0.999882   0.000979  0.009796  0.009580
5   0.999868   0.001071  0.009939  0.009467
6   0.999857   0.001154  0.013117  0.013188
7   0.999927   0.000685  0.000000  0.000000
8   0.999927   0.000691  0.000000  0.000000
9   1.000000   0.000000 -0.040357 -0.047569
10  1.000000   0.000007  0.000000  0.000000
--------------------------------------------------

LINE:
   p_from_mw  q_from_mvar   p_to_mw  q_to_mvar         pl_mw       ql_mvar  i_from_ka   i_to_ka      i_ka  vm_from_pu  va_from_degree  vm_to_pu  va_to_degree  loading_percent
0   0.040347     0.043569 -0.040344  -0.043566  3.449032e-06  2.689267e-06   0.002286  0.002286  0.002286    1.000000        0.000007  0.999927      0.000685         0.993733
1   0.032855     0.032237 -0.032853  -0.032236  1.638564e-06  1.277615e-06   0.001772  0.001772  0.001772    0.999927        0.000685  0.999882      0.000979         0.770341
2   0.007479     0.010329 -0.007403  -0.010270  7.607524e-05  5.931712e-05   0.018408  0.018408  0.018408    0.999927        0.000691  0.992664      0.122118         8.003500
3  -0.023056    -0.022655  0.023057   0.022656  3.614314e-07  2.818140e-07   0.001244  0.001244  0.001244    0.999868        0.001071  0.999882      0.000979         0.541012
4  -0.013117    -0.013188  0.013117   0.013189  1.692645e-07  1.319783e-07   0.000716  0.000716  0.000716    0.999857        0.001154  0.999868      0.001071         0.311329
5  -0.003566    -0.005078  0.003590   0.005096  2.332897e-05  1.818998e-05   0.009064  0.009064  0.009064    0.988157        0.201501  0.992664      0.122118         3.940724
6  -0.002629    -0.004221  0.002646   0.004234  1.689214e-05  1.317108e-05   0.007260  0.007260  0.007260    0.988665        0.206764  0.992664      0.122118         3.156518
7  -0.001788    -0.003178  0.001801   0.003188  1.241883e-05  9.683163e-06   0.005348  0.005348  0.005348    0.984235        0.296573  0.988157      0.201501         2.325225
--------------------------------------------------

TRAFO:
    p_hv_mw  q_hv_mvar   p_lv_mw  q_lv_mvar    pl_mw  ql_mvar   i_hv_ka   i_lv_ka  vm_hv_pu  va_hv_degree  vm_lv_pu  va_lv_degree  loading_percent
0  0.007489   0.011329 -0.007479  -0.010329  0.00001    0.001  0.000523  0.018408  0.999927      0.000685  0.999927      0.000691         0.135815
1  0.040357   0.047569 -0.040347  -0.043569  0.00001    0.004  0.000515  0.002286  1.000000      0.000000  1.000000      0.000007         0.155955
--------------------------------------------------
